*****
 OpenBabel12082211133D

 43 44  0  0  1  0  0  0  0  0999 V2000
   24.7640    2.3600   -0.9410 O   0  0  0  0  0  0  0  0  0  0  0  0
   25.5660    3.0570   -0.0240 C   0  0  1  0  0  0  0  0  0  0  0  0
   29.9900    7.3640    5.2960 N   0  0  0  0  0  0  0  0  0  0  0  0
   26.2630    4.2520   -0.6910 C   0  0  0  0  0  0  0  0  0  0  0  0
   26.9110    3.8510   -1.9410 N   0  3  0  0  0  0  0  0  0  0  0  0
   27.7870    4.9400   -2.4080 C   0  0  0  0  0  0  0  0  0  0  0  0
   29.0440    4.9700   -1.5050 C   0  0  0  0  0  0  0  0  0  0  0  0
   27.0620    6.3200   -2.3240 C   0  0  0  0  0  0  0  0  0  0  0  0
   24.6660    3.6160    1.0780 C   0  0  0  0  0  0  0  0  0  0  0  0
   25.5330    3.9350    2.1590 O   0  0  0  0  0  0  0  0  0  0  0  0
   25.0780    4.6550    3.2030 C   0  0  0  0  0  0  0  0  0  0  0  0
   23.7370    4.5910    3.5450 C   0  0  0  0  0  0  0  0  0  0  0  0
   23.2840    5.2990    4.6530 C   0  0  0  0  0  0  0  0  0  0  0  0
   24.1640    6.0620    5.4170 C   0  0  0  0  0  0  0  0  0  0  0  0
   25.5130    6.1200    5.0640 C   0  0  0  0  0  0  0  0  0  0  0  0
   25.9620    5.4170    3.9460 C   0  0  0  0  0  0  0  0  0  0  0  0
   26.5750    6.7510    5.5740 N   0  0  0  0  0  0  0  0  0  0  0  0
   27.6180    6.4450    4.8040 C   0  0  0  0  0  0  0  0  0  0  0  0
   27.2630    5.6210    3.8050 C   0  0  0  0  0  0  0  0  0  0  0  0
   28.9670    6.9090    5.0460 C   0  0  0  0  0  0  0  0  0  0  0  0
   28.1550    4.6290   -3.8810 C   0  0  0  0  0  0  0  0  0  0  0  0
   24.3455    1.6277   -0.5038 H   0  0  0  0  0  0  0  0  0  0  0  0
   26.3234    2.3630    0.3693 H   0  0  0  0  0  0  0  0  0  0  0  0
   27.0252    4.6497   -0.0049 H   0  0  0  0  0  0  0  0  0  0  0  0
   25.5132    5.0266   -0.9096 H   0  0  0  0  0  0  0  0  0  0  0  0
   26.2141    3.6628   -2.6331 H   0  0  0  0  0  0  0  0  0  0  0  0
   27.4562    3.0273   -1.7853 H   0  0  0  0  0  0  0  0  0  0  0  0
   28.7470    5.1928   -0.4695 H   0  0  0  0  0  0  0  0  0  0  0  0
   29.5440    3.9909   -1.5403 H   0  0  0  0  0  0  0  0  0  0  0  0
   29.7344    5.7476   -1.8636 H   0  0  0  0  0  0  0  0  0  0  0  0
   26.8032    6.5357   -1.2769 H   0  0  0  0  0  0  0  0  0  0  0  0
   27.7277    7.1076   -2.7067 H   0  0  0  0  0  0  0  0  0  0  0  0
   26.1442    6.2893   -2.9295 H   0  0  0  0  0  0  0  0  0  0  0  0
   24.1332    4.5126    0.7284 H   0  0  0  0  0  0  0  0  0  0  0  0
   23.9180    2.8705    1.3856 H   0  0  0  0  0  0  0  0  0  0  0  0
   23.0513    3.9981    2.9579 H   0  0  0  0  0  0  0  0  0  0  0  0
   22.2394    5.2568    4.9238 H   0  0  0  0  0  0  0  0  0  0  0  0
   23.8043    6.6058    6.2780 H   0  0  0  0  0  0  0  0  0  0  0  0
   26.5848    7.3413    6.3811 H   0  0  0  0  0  0  0  0  0  0  0  0
   27.9069    5.2088    3.0422 H   0  0  0  0  0  0  0  0  0  0  0  0
   28.6653    3.6560   -3.9344 H   0  0  0  0  0  0  0  0  0  0  0  0
   27.2386    4.5960   -4.4886 H   0  0  0  0  0  0  0  0  0  0  0  0
   28.8222    5.4144   -4.2657 H   0  0  0  0  0  0  0  0  0  0  0  0
  1  2  1  0  0  0  0
  1 22  1  0  0  0  0
  2  4  1  0  0  0  0
  2  9  1  0  0  0  0
  2 23  1  1  0  0  0
  3 20  3  0  0  0  0
  4  5  1  0  0  0  0
  4 24  1  0  0  0  0
  4 25  1  0  0  0  0
  5  6  1  0  0  0  0
  5 26  1  0  0  0  0
  5 27  1  0  0  0  0
  6 21  1  0  0  0  0
  6  8  1  0  0  0  0
  6  7  1  0  0  0  0
  7 28  1  0  0  0  0
  7 29  1  0  0  0  0
  7 30  1  0  0  0  0
  8 31  1  0  0  0  0
  8 32  1  0  0  0  0
  8 33  1  0  0  0  0
  9 10  1  0  0  0  0
  9 34  1  0  0  0  0
  9 35  1  0  0  0  0
 10 11  1  0  0  0  0
 11 12  2  0  0  0  0
 11 16  1  0  0  0  0
 12 13  1  0  0  0  0
 12 36  1  0  0  0  0
 13 14  2  0  0  0  0
 13 37  1  0  0  0  0
 14 15  1  0  0  0  0
 14 38  1  0  0  0  0
 15 16  2  0  0  0  0
 15 17  1  0  0  0  0
 16 19  1  0  0  0  0
 17 18  1  0  0  0  0
 17 39  1  0  0  0  0
 18 19  2  0  0  0  0
 18 20  1  0  0  0  0
 19 40  1  0  0  0  0
 21 41  1  0  0  0  0
 21 42  1  0  0  0  0
 21 43  1  0  0  0  0
M  CHG  1   5   1
M  END
$$$$
