*****
  PyMOL2.5          3D                             0

 10  9  0  0  1  0  0  0  0  0999 V2000
   24.7640    2.3600   -0.9410 O   0  0  0  0  0  0  0  0  0  0  0  0
   25.5660    3.0570   -0.0240 C   0  0  1  0  0  0  0  0  0  0  0  0
   26.2630    4.2520   -0.6910 C   0  0  0  0  0  0  0  0  0  0  0  0
   26.9110    3.8510   -1.9410 N   0  3  0  0  0  0  0  0  0  0  0  0
   27.7870    4.9400   -2.4080 C   0  0  0  0  0  0  0  0  0  0  0  0
   29.0440    4.9700   -1.5050 C   0  0  0  0  0  0  0  0  0  0  0  0
   27.0620    6.3200   -2.3240 C   0  0  0  0  0  0  0  0  0  0  0  0
   24.6660    3.6160    1.0780 C   0  0  0  0  0  0  0  0  0  0  0  0
   25.5330    3.9350    2.1590 O   0  0  0  0  0  0  0  0  0  0  0  0
   28.1550    4.6290   -3.8810 C   0  0  0  0  0  0  0  0  0  0  0  0
  1  2  1  0  0  0  0
  2  3  1  0  0  0  0
  2  8  1  0  0  0  0
  3  4  1  0  0  0  0
  4  5  1  0  0  0  0
  5  6  1  0  0  0  0
  5  7  1  0  0  0  0
  5 10  1  0  0  0  0
  8  9  1  0  0  0  0
M  END
$$$$
