6CM4-ligand
  PyMOL2.4          3D                             0

  6  6  0  0  0  0  0  0  0  0999 V2000
    9.8570    7.3230   -9.9030 C   0  0  0  0  0  0  0  0  0  0  0  0
   10.0850    8.3470   -8.7770 C   0  0  0  0  0  0  0  0  0  0  0  0
   10.5980    7.5820   -7.5530 C   0  0  0  0  0  0  0  0  0  0  0  0
    9.5690    6.5280   -7.1200 C   0  0  0  0  0  0  0  0  0  0  0  0
    9.3630    5.5650   -8.2800 C   0  0  0  0  0  0  0  0  0  0  0  0
    8.8820    6.2720   -9.4860 N   0  0  0  0  0  0  0  0  0  0  0  0
  1  2  1  0  0  0  0
  1  6  1  0  0  0  0
  2  3  1  0  0  0  0
  3  4  1  0  0  0  0
  4  5  1  0  0  0  0
  5  6  1  0  0  0  0
M  END
$$$$
